[General]
network = Network
Network.iotaNode.powTime = 0.1s
Network.*.elaborationDelay = 0.1ms
**.periodicTime = 1.0s
**.numSensors = ${N=2..100 step 5}

sim-time-limit = 7200s
repeat = 2
